Circuit: * D:\pedro.lobo\Documents\Altium\LTSpice_Sims\Amplific_Dimming.asc

WARNING: Specified period is not longer than the sum of Trise, Tfall, and Ton for v3.  Increasing period to 1.01
WARNING: Less than two connections to node INPUTTR.  This node is used by V3.
Direct Newton iteration for .op point succeeded.
Heightened Def Con from 0.182252 to 0.182252

Date: Wed Mar 01 18:50:38 2023
Total elapsed time: 13.056 seconds.

tnom = 27
temp = 27
method = modified trap
totiter = 2188232
traniter = 2188200
tranpoints = 698803
accept = 500887
rejected = 197917
matrix size = 19
fillins = 12
solver = Normal
Matrix Compiler1: 1.42 KB object code size  0.4/0.4/[0.2]
Matrix Compiler2: 1.82 KB object code size  0.3/0.4/[0.1]

