Circuit: * D:\pedro.lobo\Documents\Altium\LTSpice_Sims\Amplific_Dimming.asc

WARNING: Specified period is not longer than the sum of Trise, Tfall, and Ton for v3.  Increasing period to 1.01
Direct Newton iteration for .op point succeeded.

Date: Wed Mar 01 18:43:20 2023
Total elapsed time: 0.356 seconds.

tnom = 27
temp = 27
method = modified trap
totiter = 13679
traniter = 13647
tranpoints = 4353
accept = 3640
rejected = 713
matrix size = 17
fillins = 13
solver = Normal
Matrix Compiler1:      80 opcodes  0.4/[0.2]/0.2
Matrix Compiler2: off  [0.2]/0.3/0.2

