Circuit: * D:\pedro.lobo\Documents\Altium\LTSpice_Sims\Draft7.asc

WARNING: Specified period is not longer than the sum of Trise, Tfall, and Ton for v2.  Increasing period to 1.01
WARNING: Less than two connections to node INPUTPWM.  This node is used by V3.
Direct Newton iteration for .op point succeeded.
Heightened Def Con from 0.006 to 0.006
Heightened Def Con from 0.006 to 0.006

Date: Thu Mar 02 14:38:29 2023
Total elapsed time: 0.180 seconds.

tnom = 27
temp = 27
method = modified trap
totiter = 4600
traniter = 4569
tranpoints = 1618
accept = 1493
rejected = 127
matrix size = 100
fillins = 71
solver = Normal
Matrix Compiler1: 10.49 KB object code size  1.7/0.9/[0.5]
Matrix Compiler2: off  [0.6]/0.8/0.7

