Circuit: * R:\SmartLight\Simulações_Hw\Analog_FrontEnd_ADE.asc

WARNING: Less than two connections to node 5VDC.  This node is used by V2.
Direct Newton iteration for .op point succeeded.

Date: Fri Feb 04 12:25:57 2022
Total elapsed time: 0.142 seconds.

tnom = 27
temp = 27
method = modified trap
totiter = 2109
traniter = 2104
tranpoints = 1053
accept = 1049
rejected = 4
matrix size = 38
fillins = 38
solver = Normal
Matrix Compiler1: 4.14 KB object code size  1.2/0.7/[0.6]
Matrix Compiler2: off  [0.5]/0.8/0.6

