Circuit: * R:\SmartLight\Simulações_Hw\Analog_FrontEnd.asc

C7: Increased Cpar to 4.7e-013
WARNING: Node NC_01 is floating.

WARNING: Less than two connections to node 5VDC.  This node is used by V2.
WARNING: Less than two connections to node NC_01.  This node is used by C7.
Direct Newton iteration for .op point succeeded.

Date: Wed Feb 02 15:39:51 2022
Total elapsed time: 10.274 seconds.

tnom = 27
temp = 27
method = modified trap
totiter = 339267
traniter = 339254
tranpoints = 79430
accept = 59371
rejected = 20059
matrix size = 46
fillins = 24
solver = Normal
Matrix Compiler1: 3.26 KB object code size  0.7/0.4/[0.2]
Matrix Compiler2: off  [0.3]/0.5/0.5

