Circuit: * R:\SmartLight\Simulações_Hw\Balun_Filter.asc


Date: Thu Feb 10 17:36:59 2022
Total elapsed time: 0.319 seconds.

tnom = 27
temp = 27
method = trap
totiter = 0
traniter = 0
tranpoints = 0
accept = 0
rejected = 0
matrix size = 5
fillins = 0
solver = Normal

