Circuit: * R:\SmartLight\Simulações_Hw\Draft3.asc

C5: Increased Cpar to 1.2e-017
WARNING: Node N009 is floating.
WARNING: Node P001 is floating.

WARNING: Less than two connections to node N009.  This node is used by C3.

Date: Wed Jan 26 10:01:10 2022
Total elapsed time: 0.039 seconds.

tnom = 27
temp = 27
method = trap
totiter = 0
traniter = 0
tranpoints = 0
accept = 0
rejected = 0
matrix size = 13
fillins = 2
solver = Normal

