Circuit: * R:\SmartLight\Simulações_Hw\Draft4.asc

C5: Increased Cpar to 1e-018
C1: Increased Cpar to 1e-018

Date: Wed Jan 26 16:41:29 2022
Total elapsed time: 0.037 seconds.

tnom = 27
temp = 27
method = trap
totiter = 0
traniter = 0
tranpoints = 0
accept = 0
rejected = 0
matrix size = 6
fillins = 0
solver = Normal

