Circuit: * R:\SmartLight\Simulações_Hw\Draft1.asc

WARNING: Node NC_01 is floating.

WARNING: Less than two connections to node NC_01.  This node is used by C3.
Direct Newton iteration for .op point succeeded.
Ignoring empty pin current: Ix(u1:vc+)
Ignoring empty pin current: Ix(u1:vc-)
Ignoring empty pin current: Ix(u1:vout+)
Ignoring empty pin current: Ix(u1:vout-)
Ignoring empty pin current: Ix(u2:a)
Ignoring empty pin current: Ix(u2:c)
Ignoring empty pin current: Ix(u1:vc+)
Ignoring empty pin current: Ix(u1:vc-)
Ignoring empty pin current: Ix(u1:vout+)
Ignoring empty pin current: Ix(u1:vout-)
Ignoring empty pin current: Ix(u2:a)
Ignoring empty pin current: Ix(u2:c)

Date: Mon Apr 11 10:56:38 2022
Total elapsed time: 2.551 seconds.

tnom = 27
temp = 27
method = modified trap
totiter = 80057
traniter = 80018
tranpoints = 40010
accept = 24014
rejected = 15996
matrix size = 33
fillins = 13
solver = Normal
Matrix Compiler1: 2.36 KB object code size  0.4/0.2/[0.2]
Matrix Compiler2: 2.80 KB object code size  0.2/0.3/[0.2]

