Circuit: * R:\SmartLight\Simulações_Hw\R_F_Fend\Draft1.asc

WARNING: Node N002 is floating.


Date: Wed Feb 16 16:05:04 2022
Total elapsed time: 0.049 seconds.

tnom = 27
temp = 27
method = trap
totiter = 0
traniter = 0
tranpoints = 0
accept = 0
rejected = 0
matrix size = 68
fillins = 26
solver = Normal

