Circuit: * R:\SmartLight\Simulações_Hw\R_F_Fend\RF_Circuit.asc

WARNING: Node N020 is floating.
WARNING: Node N002 is floating.


Date: Wed Feb 16 16:03:10 2022
Total elapsed time: 0.054 seconds.

tnom = 27
temp = 27
method = trap
totiter = 0
traniter = 0
tranpoints = 0
accept = 0
rejected = 0
matrix size = 175
fillins = 62
solver = Normal

