Circuit: * R:\SmartLight\Simulações_Hw\R_F_Fend\RF_FrontEnd_MCU_IMPEDANCE.asc


Date: Wed Feb 16 16:26:06 2022
Total elapsed time: 0.046 seconds.

tnom = 27
temp = 27
method = trap
totiter = 0
traniter = 0
tranpoints = 0
accept = 0
rejected = 0
matrix size = 67
fillins = 26
solver = Normal

